Version 4
SHEET 1 1476 1288
WIRE 1008 -208 976 -208
WIRE 976 -160 976 -208
WIRE 720 -144 720 -192
WIRE 976 -48 976 -80
WIRE 720 -16 720 -64
WIRE 224 16 224 -16
WIRE 224 16 176 16
WIRE 224 32 224 16
WIRE 320 32 224 32
WIRE 400 32 320 32
WIRE 560 32 496 32
WIRE 176 48 176 16
WIRE 560 64 560 32
WIRE 320 96 320 32
WIRE 1024 112 928 112
WIRE 864 144 864 112
WIRE 864 144 848 144
WIRE 928 144 864 144
WIRE 176 160 176 128
WIRE 928 176 928 144
WIRE 560 192 560 144
WIRE 320 224 320 176
WIRE 416 224 416 80
WIRE 416 224 320 224
WIRE 496 224 416 224
WIRE 608 256 576 256
WIRE 704 256 688 256
WIRE 720 256 704 256
WIRE 864 256 864 144
WIRE 864 256 800 256
WIRE 1024 256 1024 112
WIRE 1088 256 1024 256
WIRE 1328 256 1184 256
WIRE 416 272 416 224
WIRE 576 272 576 256
WIRE 1328 272 1328 256
WIRE 320 288 320 224
WIRE 864 288 864 256
WIRE 496 304 496 224
WIRE 496 304 448 304
WIRE 832 304 688 304
WIRE 928 320 928 256
WIRE 928 320 896 320
WIRE 976 320 928 320
WIRE 1104 320 1104 304
WIRE 1104 320 976 320
WIRE 496 336 496 304
WIRE 688 336 688 304
WIRE 688 336 496 336
WIRE 704 336 704 256
WIRE 832 336 704 336
WIRE 976 368 976 320
WIRE 864 384 864 352
WIRE 1328 384 1328 352
WIRE 1360 384 1328 384
WIRE 320 400 320 368
WIRE 416 400 416 336
WIRE 416 400 320 400
WIRE 688 432 688 336
WIRE 720 432 688 432
WIRE 928 432 928 320
WIRE 928 432 800 432
WIRE 976 448 976 432
WIRE 416 528 416 400
WIRE 720 640 704 640
WIRE 352 672 256 672
WIRE 464 672 448 672
WIRE 704 672 704 640
WIRE 704 672 544 672
WIRE 816 672 704 672
WIRE 896 672 816 672
WIRE 1056 672 992 672
WIRE 1056 704 1056 672
WIRE 704 720 704 672
WIRE 816 736 816 672
WIRE 176 816 160 816
WIRE -208 832 -240 832
WIRE -112 832 -144 832
WIRE 704 832 704 800
WIRE 1056 832 1056 784
WIRE 160 848 160 816
WIRE 160 848 0 848
WIRE 304 848 160 848
WIRE -240 880 -240 832
WIRE -144 880 -144 832
WIRE 816 896 816 816
WIRE 816 896 96 896
WIRE 0 912 0 848
WIRE 816 928 816 896
WIRE 912 928 912 720
WIRE 912 928 816 928
WIRE 96 944 96 896
WIRE 128 944 96 944
WIRE 256 944 208 944
WIRE 304 944 304 848
WIRE 912 976 912 928
WIRE -240 992 -240 960
WIRE -144 992 -144 960
WIRE 176 992 160 992
WIRE 160 1008 160 992
WIRE 816 1008 816 928
WIRE 880 1008 816 1008
WIRE 96 1024 96 944
WIRE 128 1024 96 1024
WIRE 256 1040 256 944
WIRE 256 1040 192 1040
WIRE 304 1040 304 1024
WIRE 304 1040 256 1040
WIRE 368 1040 368 720
WIRE 368 1040 304 1040
WIRE 816 1040 816 1008
WIRE 0 1056 0 992
WIRE 128 1056 0 1056
WIRE 0 1072 0 1056
WIRE 304 1088 304 1040
WIRE 160 1104 160 1072
WIRE 816 1136 816 1120
WIRE 912 1136 912 1040
WIRE 912 1136 816 1136
WIRE 0 1168 0 1152
WIRE 304 1168 304 1152
WIRE 912 1168 912 1136
FLAG 416 528 0
FLAG 176 160 0
FLAG 560 192 0
FLAG 224 -16 VB
FLAG 864 112 VB
FLAG 576 272 0
FLAG 864 384 0
FLAG 976 448 0
FLAG 1360 384 VB
FLAG 976 -48 0
FLAG 1008 -208 VA
FLAG 928 112 VA
FLAG 720 -16 0
FLAG 704 832 0
FLAG 912 1168 0
FLAG 1056 832 0
FLAG 176 816 VB
FLAG 160 1104 0
FLAG 304 1168 0
FLAG 256 672 VA
FLAG 0 1168 0
FLAG 176 992 VB
FLAG -144 992 0
FLAG -112 832 VA
FLAG -240 992 0
FLAG 720 640 VB
SYMBOL voltage 176 32 M0
WINDOW 3 20 107 Left 2
WINDOW 123 0 0 Left 0
WINDOW 39 0 0 Left 0
SYMATTR InstName V1
SYMATTR Value PULSE(0 5 0 20m 20m 20m 80m)
SYMBOL EXTRA\\VolReg\\TL431 432 272 M0
SYMATTR InstName U1
SYMBOL res 544 48 R0
SYMATTR InstName R5
SYMATTR Value 100
SYMBOL pmos 496 80 M270
SYMATTR InstName M1
SYMATTR Value Si9433DY
SYMBOL res 304 80 R0
SYMATTR InstName R2
SYMATTR Value 5k
SYMBOL res 304 272 R0
SYMATTR InstName R1
SYMATTR Value 10k
SYMBOL Comparator\\lm393 864 320 R0
SYMATTR InstName U2
SYMBOL res 816 240 R90
WINDOW 0 5 56 VBottom 2
WINDOW 3 27 56 VTop 2
SYMATTR InstName R3
SYMATTR Value 1000
SYMBOL res 704 240 R90
WINDOW 0 5 56 VBottom 2
WINDOW 3 27 56 VTop 2
SYMATTR InstName R4
SYMATTR Value 1400
SYMBOL res 912 160 R0
SYMATTR InstName R6
SYMATTR Value 220
SYMBOL res 816 416 R90
WINDOW 0 5 56 VBottom 2
WINDOW 3 27 56 VTop 2
SYMATTR InstName R7
SYMATTR Value 50k
SYMBOL cap 960 368 R0
SYMATTR InstName C1
SYMATTR Value 10n
SYMBOL voltage 976 -176 R0
WINDOW 123 0 0 Left 0
WINDOW 39 0 0 Left 0
SYMATTR InstName V2
SYMATTR Value 5
SYMBOL res 1312 256 R0
SYMATTR InstName R8
SYMATTR Value 10
SYMBOL pmos 1184 304 M270
SYMATTR InstName M2
SYMATTR Value Si9433DY
SYMBOL voltage 720 -160 R0
WINDOW 123 0 0 Left 0
WINDOW 39 0 0 Left 0
SYMATTR InstName V3
SYMATTR Value 4.3
SYMBOL pmos 448 720 M270
SYMATTR InstName M3
SYMATTR Value Si9433DY
SYMBOL res 560 656 R90
WINDOW 0 5 56 VBottom 2
WINDOW 3 27 56 VTop 2
SYMATTR InstName R9
SYMATTR Value 10
SYMBOL voltage 704 704 M0
WINDOW 3 -89 156 Left 2
WINDOW 123 0 0 Left 0
WINDOW 39 0 0 Left 0
SYMATTR InstName V4
SYMATTR Value PULSE(0 5 0 20m 20m 20m 80m)
SYMBOL EXTRA\\VolReg\\TL431 896 976 R0
SYMATTR InstName U3
SYMBOL res 1040 688 R0
SYMATTR InstName R10
SYMATTR Value 100
SYMBOL pmos 992 720 M270
SYMATTR InstName M4
SYMATTR Value Si9433DY
SYMBOL res 800 720 R0
SYMATTR InstName R11
SYMATTR Value 5k
SYMBOL res 800 1024 R0
SYMATTR InstName R12
SYMATTR Value 10k
SYMBOL Comparator\\lm393 160 1040 R0
SYMATTR InstName U4
SYMBOL res -16 896 R0
SYMATTR InstName R13
SYMATTR Value 1000
SYMBOL res -16 1056 R0
SYMATTR InstName R14
SYMATTR Value 1400
SYMBOL res 288 928 R0
SYMATTR InstName R15
SYMATTR Value 220
SYMBOL res 112 960 R270
WINDOW 0 27 56 VTop 2
WINDOW 3 5 56 VBottom 2
SYMATTR InstName R16
SYMATTR Value 50k
SYMBOL cap 288 1088 R0
SYMATTR InstName C2
SYMATTR Value 10n
SYMBOL voltage -144 864 R0
WINDOW 123 0 0 Left 0
WINDOW 39 0 0 Left 0
SYMATTR InstName V5
SYMATTR Value 5
SYMBOL voltage -240 864 R0
WINDOW 123 0 0 Left 0
WINDOW 39 0 0 Left 0
SYMATTR InstName V6
SYMATTR Value 4.3
TEXT 32 296 Left 2 !.tran 80m startup
