Version 4
SHEET 1 1152 688
WIRE 576 16 448 16
WIRE 800 16 656 16
WIRE 288 128 272 128
WIRE 400 128 288 128
WIRE 448 128 448 16
WIRE 448 128 400 128
WIRE 480 128 448 128
WIRE 800 128 800 16
WIRE 800 128 768 128
WIRE 288 144 288 128
WIRE 400 144 400 128
WIRE 400 160 400 144
WIRE 944 224 768 224
WIRE 1056 224 944 224
WIRE 1104 224 1056 224
WIRE 288 240 288 224
WIRE 400 240 400 224
WIRE 1056 272 1056 224
WIRE 1056 288 1056 272
WIRE 480 320 288 320
WIRE 944 320 944 304
WIRE 944 320 768 320
WIRE 976 320 944 320
WIRE 944 336 944 320
WIRE 864 416 768 416
WIRE 896 416 864 416
WIRE 864 464 864 416
WIRE 864 480 864 464
WIRE 480 512 384 512
WIRE 800 512 768 512
WIRE 288 528 288 320
WIRE 384 528 384 512
WIRE 384 544 384 528
WIRE 288 640 288 608
WIRE 384 640 384 608
WIRE 624 640 624 560
WIRE 800 640 800 512
WIRE 864 640 864 544
WIRE 944 640 944 416
WIRE 1056 640 1056 352
FLAG 288 240 0
FLAG 400 240 0
FLAG 624 640 0
FLAG 384 640 0
FLAG 288 640 0
FLAG 800 640 0
FLAG 864 640 0
FLAG 944 640 0
FLAG 1056 640 0
FLAG 272 128 IN
FLAG 896 416 LDO
FLAG 976 320 FB
FLAG 1104 224 OUT
SYMBOL voltage 288 128 R0
WINDOW 123 0 0 Left 0
WINDOW 39 0 0 Left 0
SYMATTR InstName V_BATT
SYMATTR Value 1
SYMBOL PowerProducts\\LTC3105 624 320 R0
SYMATTR InstName U1
SYMBOL ind 560 32 R270
WINDOW 0 32 56 VTop 2
WINDOW 3 5 56 VBottom 2
SYMATTR InstName L1
SYMATTR Value 10µ
SYMBOL res 272 512 R0
SYMATTR InstName R1
SYMATTR Value 40.2k
SYMBOL cap 368 544 R0
SYMATTR InstName C3
SYMATTR Value 1µ
SYMBOL cap 384 160 R0
SYMATTR InstName C1
SYMATTR Value 10µ
SYMBOL cap 848 480 R0
SYMATTR InstName C2
SYMATTR Value 4.7µ
SYMBOL res 928 208 R0
SYMATTR InstName R2
SYMATTR Value 1020k
SYMBOL res 928 320 R0
SYMATTR InstName R3
SYMATTR Value 200k
SYMBOL cap 1040 288 R0
SYMATTR InstName C4
SYMATTR Value 10µ
TEXT 368 -80 Left 6 ;Joule Thief R1 V0
TEXT 104 280 Left 2 !.tran 10m startup
