Version 4
SHEET 1 2304 680
WIRE 80 -208 -48 -208
WIRE 304 -208 160 -208
WIRE 1584 -160 624 -160
WIRE -400 -96 -592 -96
WIRE -256 -96 -320 -96
WIRE -96 -96 -256 -96
WIRE -48 -96 -48 -208
WIRE -48 -96 -96 -96
WIRE -16 -96 -48 -96
WIRE 304 -96 304 -208
WIRE 304 -96 272 -96
WIRE -96 -80 -96 -96
WIRE -592 -64 -592 -96
WIRE -96 -64 -96 -80
WIRE 1264 -32 1248 -32
WIRE 304 0 272 0
WIRE 448 0 384 0
WIRE 560 0 448 0
WIRE 592 0 560 0
WIRE 624 0 624 -160
WIRE 624 0 592 0
WIRE 688 0 624 0
WIRE 784 0 688 0
WIRE 976 0 784 0
WIRE 1104 0 1072 0
WIRE 1136 0 1104 0
WIRE 1248 0 1248 -32
WIRE 1248 0 1200 0
WIRE -96 16 -96 0
WIRE 1248 16 1248 0
WIRE 1584 16 1584 -160
WIRE 560 48 560 0
WIRE -592 64 -592 16
WIRE -592 64 -656 64
WIRE -528 64 -592 64
WIRE 560 64 560 48
WIRE -528 80 -528 64
WIRE 688 80 688 0
WIRE -656 96 -656 64
WIRE -16 96 -208 96
WIRE 448 96 448 80
WIRE 448 96 272 96
WIRE 480 96 448 96
WIRE 784 96 784 0
WIRE 848 96 784 96
WIRE 448 112 448 96
WIRE 848 112 848 96
WIRE 1248 112 1248 96
WIRE 1584 160 1584 96
WIRE -208 176 -208 96
WIRE 784 176 784 96
WIRE -16 192 -96 192
WIRE 368 192 272 192
WIRE 400 192 368 192
WIRE 688 192 688 160
WIRE 752 192 688 192
WIRE 848 208 848 192
WIRE 848 208 816 208
WIRE 992 208 992 48
WIRE 992 208 848 208
WIRE 1248 208 1248 192
WIRE -656 224 -656 160
WIRE -528 224 -528 160
WIRE -528 224 -656 224
WIRE 752 224 720 224
WIRE 848 224 848 208
WIRE 368 240 368 192
WIRE 1104 240 1104 0
WIRE -656 256 -656 224
WIRE -528 256 -528 224
WIRE 368 256 368 240
WIRE 688 272 688 192
WIRE 688 272 640 272
WIRE -16 288 -112 288
WIRE 304 288 272 288
WIRE 688 288 688 272
WIRE -112 304 -112 288
WIRE 784 304 784 240
WIRE 848 304 848 288
WIRE -112 320 -112 304
WIRE 640 320 640 272
WIRE 656 320 640 320
WIRE 720 352 720 224
WIRE 1104 352 1104 320
WIRE 1104 352 720 352
WIRE -656 368 -656 336
WIRE -528 368 -528 320
WIRE -528 368 -656 368
WIRE 1104 384 1104 352
WIRE -656 448 -656 368
WIRE -208 496 -208 256
WIRE -112 496 -112 384
WIRE 128 496 128 336
WIRE 304 496 304 288
WIRE 368 496 368 320
WIRE 448 496 448 192
WIRE 560 496 560 128
WIRE 688 496 688 352
WIRE 1104 496 1104 464
FLAG -96 16 0
FLAG 128 496 0
FLAG -112 496 0
FLAG -208 496 0
FLAG 304 496 0
FLAG 368 496 0
FLAG 448 496 0
FLAG 560 496 0
FLAG -256 -96 IN
FLAG 400 192 LDO
FLAG 480 96 FB
FLAG 592 0 OUT
FLAG -656 448 0
FLAG 1248 208 0
FLAG 784 304 0
FLAG 1104 496 0
FLAG 688 496 0
FLAG 848 304 0
FLAG 1264 -32 vb
FLAG 1584 160 0
SYMBOL PowerProducts\\LTC3105 128 96 R0
SYMATTR InstName U1
SYMBOL ind 64 -192 R270
WINDOW 0 32 56 VTop 2
WINDOW 3 5 56 VBottom 2
SYMATTR InstName L1
SYMATTR Value 20µ
SYMATTR SpiceLine Rser=1.87
SYMBOL cap -128 320 R0
SYMATTR InstName C1
SYMATTR Value 1µ
SYMBOL cap -112 -64 R0
SYMATTR InstName C2
SYMATTR Value 10µ
SYMBOL cap 352 256 R0
SYMATTR InstName C3
SYMATTR Value 4.7µ
SYMBOL res 432 -16 R0
SYMATTR InstName R1
SYMATTR Value 900k
SYMBOL res 432 96 R0
SYMATTR InstName R2
SYMATTR Value 220k
SYMBOL cap 544 64 R0
SYMATTR InstName C4
SYMATTR Value 10µ
SYMBOL voltage -592 -80 R0
WINDOW 3 27 90 Left 2
WINDOW 123 0 0 Left 0
WINDOW 39 27 110 Left 2
SYMATTR Value 1.2
SYMATTR SpiceLine Rser=0
SYMATTR InstName V1
SYMBOL current -528 160 R180
WINDOW 0 24 80 Left 2
WINDOW 3 21 -21 Left 2
SYMATTR InstName I1
SYMATTR Value {ISOURCE}
SYMBOL diode -672 96 R0
SYMATTR InstName D1
SYMBOL current -656 256 R0
SYMATTR InstName I2
SYMATTR Value {ISINK}
SYMBOL diode -512 320 R180
WINDOW 0 24 64 Left 2
WINDOW 3 24 0 Left 2
SYMATTR InstName D2
SYMBOL voltage 400 0 R90
WINDOW 0 -32 56 VBottom 2
WINDOW 3 32 56 VTop 2
WINDOW 123 0 0 Left 0
WINDOW 39 0 0 Left 0
SYMATTR InstName V2
SYMATTR Value 0
SYMBOL res -304 -112 R90
WINDOW 0 5 56 VBottom 2
WINDOW 3 27 56 VTop 2
SYMATTR InstName R4
SYMATTR Value 0.1
SYMBOL res -224 160 R0
SYMATTR InstName R5
SYMATTR Value 100k
SYMBOL EXTRA\\VolReg\\TL431 672 288 R0
SYMATTR InstName U2
SYMBOL Comparator\\lm393 784 208 R0
SYMATTR InstName U3
SYMBOL res 832 96 R0
SYMATTR InstName R3
SYMATTR Value 47k
SYMBOL schottky 1136 16 R270
WINDOW 0 32 32 VTop 2
WINDOW 3 0 32 VBottom 2
SYMATTR InstName D3
SYMATTR Value 1N5817
SYMBOL cap 1232 128 R0
SYMATTR InstName C5
SYMATTR Value 50m
SYMBOL res 1232 0 R0
SYMATTR InstName R6
SYMATTR Value 0.1
SYMBOL pmos 1072 48 M270
SYMATTR InstName M1
SYMATTR Value IRF9540N
SYMBOL res 672 64 R0
SYMATTR InstName R7
SYMATTR Value 4.7k
SYMBOL res 1088 368 R0
SYMATTR InstName R8
SYMATTR Value 100k
SYMBOL res 1088 224 R0
SYMATTR InstName R9
SYMATTR Value 75k
SYMBOL cap 832 224 R0
SYMATTR InstName C6
SYMATTR Value 10n
SYMBOL res 1568 0 R0
SYMATTR InstName R10
SYMATTR Value 100
TEXT -168 -304 Left 6 ;Joule Thief R4 V1 - MVP
TEXT -624 416 Left 2 !.param ISINK=1m
TEXT -624 392 Left 2 !.param ISOURCE=1
TEXT -728 -160 Left 2 ;CURRENT LIMITED VOLTAGE SOURCE
TEXT -728 488 Left 2 !.tran 1 startup
TEXT 1096 -56 Left 2 ;18650 Li-Ion Cell
TEXT -672 -120 Left 2 ;AA 1.5V Alkaline Cell
TEXT 696 -24 Left 2 ;4.3V Overcharge Protect
TEXT 632 -176 Left 2 ;Dummy Load for testing
TEXT -200 168 Left 2 ;MPPC Resistor
TEXT -392 -56 Left 2 ;AA ESR
TEXT 1384 8 Left 2 ;Dummy Load for testing
RECTANGLE Normal -432 -144 -720 480 2
RECTANGLE Normal 1344 544 -800 -272 2
