Version 4
SHEET 1 2304 680
WIRE 80 -208 -48 -208
WIRE 304 -208 160 -208
WIRE -400 -96 -592 -96
WIRE -256 -96 -320 -96
WIRE -96 -96 -256 -96
WIRE -48 -96 -48 -208
WIRE -48 -96 -96 -96
WIRE -16 -96 -48 -96
WIRE 304 -96 304 -208
WIRE 304 -96 272 -96
WIRE -96 -80 -96 -96
WIRE -592 -64 -592 -96
WIRE -96 -64 -96 -80
WIRE 1120 -32 1104 -32
WIRE 304 0 272 0
WIRE 448 0 384 0
WIRE 560 0 448 0
WIRE 592 0 560 0
WIRE 688 0 592 0
WIRE 896 0 752 0
WIRE 1104 0 1104 -32
WIRE 1104 0 992 0
WIRE 1216 0 1104 0
WIRE 1296 0 1216 0
WIRE 1456 0 1392 0
WIRE -96 16 -96 0
WIRE 1104 16 1104 0
WIRE 560 48 560 0
WIRE -592 64 -592 16
WIRE -592 64 -656 64
WIRE -528 64 -592 64
WIRE 560 64 560 48
WIRE 1216 64 1216 0
WIRE -528 80 -528 64
WIRE -656 96 -656 64
WIRE -16 96 -208 96
WIRE 448 96 448 80
WIRE 448 96 272 96
WIRE 480 96 448 96
WIRE 448 112 448 96
WIRE 912 112 912 48
WIRE 1040 112 912 112
WIRE 1104 112 1104 96
WIRE 832 144 816 144
WIRE 1456 160 1456 112
WIRE -208 176 -208 96
WIRE 816 176 816 144
WIRE 816 176 656 176
WIRE 960 176 816 176
WIRE -16 192 -96 192
WIRE 368 192 272 192
WIRE 400 192 368 192
WIRE 1104 208 1104 192
WIRE -656 224 -656 160
WIRE -528 224 -528 160
WIRE -528 224 -656 224
WIRE 1216 224 1216 144
WIRE 1216 224 752 224
WIRE 368 240 368 192
WIRE 656 240 656 176
WIRE -656 256 -656 224
WIRE -528 256 -528 224
WIRE 368 256 368 240
WIRE 1216 256 1216 224
WIRE 1312 256 1312 48
WIRE 1312 256 1216 256
WIRE 752 272 752 224
WIRE 784 272 752 272
WIRE 912 272 864 272
WIRE 960 272 960 176
WIRE -16 288 -112 288
WIRE 304 288 272 288
WIRE -112 304 -112 288
WIRE 1312 304 1312 256
WIRE -112 320 -112 304
WIRE 832 320 816 320
WIRE 816 336 816 320
WIRE 1216 336 1216 256
WIRE 1280 336 1216 336
WIRE 752 352 752 272
WIRE 784 352 752 352
WIRE -656 368 -656 336
WIRE -528 368 -528 320
WIRE -528 368 -656 368
WIRE 912 368 912 272
WIRE 912 368 848 368
WIRE 960 368 960 352
WIRE 960 368 912 368
WIRE 1040 368 1040 112
WIRE 1040 368 960 368
WIRE 1216 368 1216 336
WIRE 656 384 656 320
WIRE 784 384 656 384
WIRE 656 400 656 384
WIRE 960 400 960 368
WIRE 960 416 960 400
WIRE -656 448 -656 368
WIRE 1216 464 1216 448
WIRE 1312 464 1312 368
WIRE 1312 464 1216 464
WIRE -208 496 -208 256
WIRE -112 496 -112 384
WIRE 128 496 128 336
WIRE 304 496 304 288
WIRE 368 496 368 320
WIRE 448 496 448 192
WIRE 560 496 560 128
WIRE 656 496 656 480
WIRE 816 496 816 400
WIRE 960 496 960 480
WIRE 1312 496 1312 464
FLAG -96 16 0
FLAG 128 496 0
FLAG -112 496 0
FLAG -208 496 0
FLAG 304 496 0
FLAG 368 496 0
FLAG 448 496 0
FLAG 560 496 0
FLAG -256 -96 IN
FLAG 400 192 LDO
FLAG 480 96 FB
FLAG 592 0 OUT
FLAG -656 448 0
FLAG 1312 496 0
FLAG 1456 160 0
FLAG 832 144 VB
FLAG 816 496 0
FLAG 960 496 0
FLAG 656 496 0
FLAG 832 320 VB
FLAG 1120 -32 VB
FLAG 1104 208 0
SYMBOL PowerProducts\\LTC3105 128 96 R0
SYMATTR InstName U1
SYMBOL ind 64 -192 R270
WINDOW 0 32 56 VTop 2
WINDOW 3 5 56 VBottom 2
SYMATTR InstName L1
SYMATTR Value 20µ
SYMATTR SpiceLine Rser=1.87
SYMBOL cap -128 320 R0
SYMATTR InstName C1
SYMATTR Value 1µ
SYMBOL cap -112 -64 R0
SYMATTR InstName C2
SYMATTR Value 10µ
SYMBOL cap 352 256 R0
SYMATTR InstName C3
SYMATTR Value 4.7µ
SYMBOL res 432 -16 R0
SYMATTR InstName R1
SYMATTR Value 900k
SYMBOL res 432 96 R0
SYMATTR InstName R2
SYMATTR Value 220k
SYMBOL cap 544 64 R0
SYMATTR InstName C4
SYMATTR Value 10µ
SYMBOL voltage -592 -80 R0
WINDOW 3 27 90 Left 2
WINDOW 123 0 0 Left 0
WINDOW 39 27 110 Left 2
SYMATTR Value 1.5
SYMATTR SpiceLine Rser=0
SYMATTR InstName V1
SYMBOL current -528 160 R180
WINDOW 0 24 80 Left 2
WINDOW 3 21 -21 Left 2
SYMATTR InstName I1
SYMATTR Value {ISOURCE}
SYMBOL diode -672 96 R0
SYMATTR InstName D1
SYMBOL current -656 256 R0
SYMATTR InstName I2
SYMATTR Value {ISINK}
SYMBOL diode -512 320 R180
WINDOW 0 24 64 Left 2
WINDOW 3 24 0 Left 2
SYMATTR InstName D2
SYMBOL voltage 400 0 R90
WINDOW 0 -32 56 VBottom 2
WINDOW 3 32 56 VTop 2
WINDOW 123 0 0 Left 0
WINDOW 39 0 0 Left 0
SYMATTR InstName V2
SYMATTR Value 0
SYMBOL res -304 -112 R90
WINDOW 0 5 56 VBottom 2
WINDOW 3 27 56 VTop 2
SYMATTR InstName R4
SYMATTR Value 0.1
SYMBOL res -224 160 R0
SYMATTR InstName R5
SYMATTR Value 40k
SYMBOL EXTRA\\VolReg\\TL431 1296 304 R0
SYMATTR InstName U2
SYMBOL res 1440 16 R0
SYMATTR InstName R7
SYMATTR Value 100
SYMBOL res 1200 48 R0
SYMATTR InstName R8
SYMATTR Value 4.7k
SYMBOL res 1200 352 R0
SYMATTR InstName R9
SYMATTR Value 10k
SYMBOL Comparator\\lm393 816 368 R0
SYMATTR InstName U3
SYMBOL res 640 224 R0
SYMATTR InstName R10
SYMATTR Value 10k
SYMBOL res 640 384 R0
SYMATTR InstName R11
SYMATTR Value 14.7k
SYMBOL res 944 256 R0
SYMATTR InstName R12
SYMATTR Value 220
SYMBOL res 768 288 R270
WINDOW 0 27 56 VTop 2
WINDOW 3 5 56 VBottom 2
SYMATTR InstName R13
SYMATTR Value 47k
SYMBOL cap 944 416 R0
SYMATTR InstName C5
SYMATTR Value 10n
SYMBOL schottky 688 16 R270
WINDOW 0 32 32 VTop 2
WINDOW 3 0 32 VBottom 2
SYMATTR InstName D3
SYMATTR Value 1N5817
SYMBOL cap 1088 128 R0
SYMATTR InstName C6
SYMATTR Value 1m
SYMBOL res 1088 0 R0
SYMATTR InstName R3
SYMATTR Value 0.1
SYMBOL pmos 992 48 M270
SYMATTR InstName M2
SYMATTR Value IRF9540N
SYMBOL pmos 1392 48 M270
SYMATTR InstName M3
SYMATTR Value IRF7204
TEXT -168 -304 Left 6 ;Joule Thief R4 V0 - MVP
TEXT -624 416 Left 2 !.param ISINK=1m
TEXT -624 392 Left 2 !.param ISOURCE=1
TEXT -728 -160 Left 2 ;CURRENT LIMITED VOLTAGE SOURCE
TEXT -728 488 Left 2 !.tran 1 startup
TEXT 1360 232 Left 2 ;overdischarge protect
TEXT 648 152 Left 2 ;overcharge protect
TEXT 1472 16 Left 2 ;load
TEXT 1032 32 Left 2 ;battery
RECTANGLE Normal -432 -144 -720 480 2
