Version 4
SHEET 1 2212 788
WIRE 16 0 -112 0
WIRE 240 0 96 0
WIRE -320 112 -544 112
WIRE -160 112 -320 112
WIRE -112 112 -112 0
WIRE -112 112 -160 112
WIRE -80 112 -112 112
WIRE 240 112 240 0
WIRE 240 112 208 112
WIRE -160 128 -160 112
WIRE -544 144 -544 112
WIRE -160 144 -160 128
WIRE 240 208 208 208
WIRE 384 208 320 208
WIRE 496 208 384 208
WIRE 528 208 496 208
WIRE 576 208 528 208
WIRE 752 208 640 208
WIRE 960 208 752 208
WIRE 1168 208 960 208
WIRE 1392 208 1264 208
WIRE -160 224 -160 208
WIRE 960 240 960 208
WIRE 1392 240 1392 208
WIRE 496 256 496 208
WIRE -544 272 -544 224
WIRE -544 272 -608 272
WIRE -480 272 -544 272
WIRE 496 272 496 256
WIRE -480 288 -480 272
WIRE -608 304 -608 272
WIRE -80 304 -272 304
WIRE 384 304 384 288
WIRE 384 304 208 304
WIRE 416 304 384 304
WIRE 384 320 384 304
WIRE 960 320 960 304
WIRE 1104 352 1072 352
WIRE 1392 352 1392 320
WIRE 752 384 752 208
WIRE 784 384 752 384
WIRE 1072 384 1072 352
WIRE 304 400 208 400
WIRE 336 400 304 400
WIRE 880 400 848 400
WIRE 896 400 880 400
WIRE 1040 400 976 400
WIRE 784 416 752 416
WIRE 1136 416 1104 416
WIRE 1184 416 1184 256
WIRE 1184 416 1136 416
WIRE -608 432 -608 368
WIRE -480 432 -480 368
WIRE -480 432 -608 432
WIRE 1040 432 928 432
WIRE 304 448 304 400
WIRE 752 448 752 416
WIRE 880 448 880 400
WIRE 880 448 752 448
WIRE -608 464 -608 432
WIRE -480 464 -480 432
WIRE 304 464 304 448
WIRE 1072 464 1072 448
WIRE -80 496 -176 496
WIRE 240 496 208 496
WIRE -272 512 -272 304
WIRE -176 512 -176 496
WIRE 672 512 640 512
WIRE 784 512 752 512
WIRE 928 512 928 432
WIRE 928 512 864 512
WIRE 992 512 928 512
WIRE 1136 512 1136 416
WIRE 1136 512 1072 512
WIRE -176 528 -176 512
WIRE 640 544 640 512
WIRE -608 576 -608 544
WIRE -480 576 -480 528
WIRE -480 576 -608 576
WIRE -608 656 -608 576
WIRE -272 656 -272 592
WIRE -176 656 -176 592
WIRE 64 656 64 544
WIRE 240 656 240 496
WIRE 304 656 304 528
WIRE 384 656 384 400
WIRE 496 656 496 336
WIRE 640 656 640 624
FLAG -160 224 0
FLAG 64 656 0
FLAG -176 656 0
FLAG -272 656 0
FLAG 240 656 0
FLAG 304 656 0
FLAG 384 656 0
FLAG 496 656 0
FLAG -320 112 IN
FLAG 336 400 LDO
FLAG 416 304 FB
FLAG 528 208 OUT
FLAG 640 656 0
FLAG 1072 464 0
FLAG 1392 352 0
FLAG 960 320 0
FLAG 1104 352 VCC
FLAG 672 512 VCC
FLAG 752 512 VCC
FLAG -608 656 0
SYMBOL PowerProducts\\LTC3105 64 304 R0
SYMATTR InstName U1
SYMBOL ind 0 16 R270
WINDOW 0 32 56 VTop 2
WINDOW 3 5 56 VBottom 2
SYMATTR InstName L1
SYMATTR Value 10µ
SYMBOL res -288 496 R0
SYMATTR InstName R1
SYMATTR Value 40.2k
SYMBOL cap -192 528 R0
SYMATTR InstName C1
SYMATTR Value 1µ
SYMBOL cap -176 144 R0
SYMATTR InstName C2
SYMATTR Value 10µ
SYMBOL cap 288 464 R0
SYMATTR InstName C3
SYMATTR Value 4.7µ
SYMBOL res 368 192 R0
SYMATTR InstName R2
SYMATTR Value 1300k
SYMBOL res 368 304 R0
SYMATTR InstName R3
SYMATTR Value 200k
SYMBOL cap 480 272 R0
SYMATTR InstName C4
SYMATTR Value 10µ
SYMBOL Comparator\\lm393 1072 416 R0
SYMATTR InstName U2
SYMBOL res 880 416 R270
WINDOW 0 27 56 VTop 2
WINDOW 3 5 56 VBottom 2
SYMATTR InstName Rs1
SYMATTR Value 5k
SYMBOL res 880 496 R90
WINDOW 0 0 56 VBottom 2
WINDOW 3 32 56 VTop 2
SYMATTR InstName R6
SYMATTR Value 10k
SYMBOL res 1088 496 R90
WINDOW 0 0 56 VBottom 2
WINDOW 3 32 56 VTop 2
SYMATTR InstName R7
SYMATTR Value 30k
SYMBOL voltage 640 528 R0
WINDOW 123 0 0 Left 0
WINDOW 39 0 0 Left 0
SYMATTR InstName V1
SYMATTR Value 4.2
SYMBOL res 1376 224 R0
SYMATTR InstName BMS_LOAD
SYMATTR Value 100
SYMBOL pmos 1264 256 M270
SYMATTR InstName M1
SYMATTR Value AO6407
SYMBOL polcap 944 240 R0
WINDOW 3 24 56 Left 2
SYMATTR Value 1000µ
SYMATTR InstName C5
SYMATTR Description Capacitor
SYMATTR Type cap
SYMATTR SpiceLine V=10 Irms=520m Rser=0.112 Lser=22.8n mfg="Würth Elektronik" pn="860020275015 WCAP-ATG5 10x12,5" type="Al electrolytic"
SYMBOL opamp 816 464 M180
SYMATTR InstName U3
SYMBOL schottky 576 224 R270
WINDOW 0 32 32 VTop 2
WINDOW 3 0 32 VBottom 2
SYMATTR InstName D1
SYMATTR Value BAT54
SYMBOL voltage -544 128 R0
WINDOW 3 27 90 Left 2
WINDOW 123 0 0 Left 0
WINDOW 39 0 0 Left 0
SYMATTR Value 0.725
SYMATTR InstName V2
SYMBOL current -480 368 R180
WINDOW 0 24 80 Left 2
WINDOW 3 21 -21 Left 2
SYMATTR InstName I1
SYMATTR Value {ISOURCE}
SYMBOL diode -624 304 R0
SYMATTR InstName D2
SYMBOL current -608 464 R0
SYMATTR InstName I2
SYMATTR Value {ISINK}
SYMBOL diode -464 528 R180
WINDOW 0 24 64 Left 2
WINDOW 3 24 0 Left 2
SYMATTR InstName D3
SYMBOL voltage 336 208 R90
WINDOW 0 -32 56 VBottom 2
WINDOW 3 32 56 VTop 2
WINDOW 123 0 0 Left 0
WINDOW 39 0 0 Left 0
SYMATTR InstName V3
SYMATTR Value 0
TEXT -232 -96 Left 6 ;Joule Thief R2 V0 - MVP
TEXT 728 632 Left 2 !.tran 1 startup
TEXT -576 624 Left 2 !.param ISINK=1m
TEXT -576 600 Left 2 !.param ISOURCE=500m
TEXT -680 48 Left 2 ;CURRENT LIMITED VOLTAGE SOURCE
RECTANGLE Normal -384 64 -672 688 2
