Version 4
SHEET 1 880 680
WIRE -272 -192 -288 -192
WIRE -96 -192 -112 -192
WIRE -288 -144 -288 -192
WIRE -112 -144 -112 -192
WIRE -288 -32 -288 -64
WIRE -112 -32 -112 -64
WIRE 224 80 224 -128
WIRE 272 80 224 80
WIRE 224 144 224 80
WIRE 176 160 128 160
WIRE 128 192 128 160
WIRE 128 192 0 192
WIRE 144 192 128 192
WIRE 0 224 0 192
WIRE 0 224 -80 224
WIRE 128 224 128 192
WIRE 176 224 128 224
WIRE 128 256 128 224
WIRE 224 256 224 240
WIRE 272 256 224 256
WIRE 224 272 224 256
WIRE 128 368 128 336
WIRE 224 400 224 352
FLAG 224 -128 5V
FLAG 128 368 0
FLAG -80 224 GPIO
FLAG 224 400 0
FLAG -288 -32 0
FLAG -112 -32 0
FLAG -272 -192 5V
FLAG -96 -192 GPIO
FLAG 272 80 out_n
FLAG 272 256 out_p
SYMBOL res 208 256 R0
SYMATTR InstName R_Load
SYMATTR Value 500
SYMBOL res 144 352 R180
WINDOW 0 36 76 Left 2
WINDOW 3 36 40 Left 2
SYMATTR InstName R3
SYMATTR Value 10k
SYMBOL voltage -112 -160 R0
WINDOW 123 0 0 Left 0
WINDOW 39 0 0 Left 0
SYMATTR InstName V1
SYMATTR Value PULSE(0 5 0 1n 1n 10m 20m)
SYMBOL voltage -288 -160 R0
WINDOW 123 0 0 Left 0
WINDOW 39 0 0 Left 0
SYMATTR InstName V2
SYMATTR Value 5
SYMBOL EXTRA\\Philips\\NMOSFET\\2N7000 512 64 R0
SYMATTR InstName U1
SYMBOL pmos 176 240 M180
SYMATTR InstName M1
SYMATTR Value AO6407
TEXT -320 392 Left 2 !.tran 100m
