Version 4
SHEET 1 940 680
WIRE 256 -80 128 -80
WIRE 480 -80 336 -80
WIRE -224 32 -416 32
WIRE -80 32 -144 32
WIRE 80 32 -80 32
WIRE 128 32 128 -80
WIRE 128 32 80 32
WIRE 160 32 128 32
WIRE 480 32 480 -80
WIRE 480 32 448 32
WIRE 80 48 80 32
WIRE -416 64 -416 32
WIRE 80 64 80 48
WIRE 480 128 448 128
WIRE 624 128 560 128
WIRE 736 128 624 128
WIRE 768 128 736 128
WIRE 880 128 768 128
WIRE 80 144 80 128
WIRE 736 176 736 128
WIRE 880 176 880 128
WIRE -416 192 -416 144
WIRE -416 192 -480 192
WIRE -352 192 -416 192
WIRE 736 192 736 176
WIRE -352 208 -352 192
WIRE -480 224 -480 192
WIRE 160 224 -32 224
WIRE 624 224 624 208
WIRE 624 224 448 224
WIRE 656 224 624 224
WIRE 624 240 624 224
WIRE -32 304 -32 224
WIRE 160 320 80 320
WIRE 544 320 448 320
WIRE 576 320 544 320
WIRE 880 320 880 256
WIRE -480 352 -480 288
WIRE -352 352 -352 288
WIRE -352 352 -480 352
WIRE 544 368 544 320
WIRE -480 384 -480 352
WIRE -352 384 -352 352
WIRE 544 384 544 368
WIRE 160 416 64 416
WIRE 480 416 448 416
WIRE 64 432 64 416
WIRE 64 448 64 432
WIRE -480 496 -480 464
WIRE -352 496 -352 448
WIRE -352 496 -480 496
WIRE -480 576 -480 496
WIRE -32 576 -32 384
WIRE 64 576 64 512
WIRE 304 576 304 464
WIRE 480 576 480 416
WIRE 544 576 544 448
WIRE 624 576 624 320
WIRE 736 576 736 256
FLAG 80 144 0
FLAG 304 576 0
FLAG 64 576 0
FLAG -32 576 0
FLAG 480 576 0
FLAG 544 576 0
FLAG 624 576 0
FLAG 736 576 0
FLAG -80 32 IN
FLAG 576 320 LDO
FLAG 656 224 FB
FLAG 768 128 OUT
FLAG -480 576 0
FLAG 880 320 0
SYMBOL PowerProducts\\LTC3105 304 224 R0
SYMATTR InstName U1
SYMBOL ind 240 -64 R270
WINDOW 0 32 56 VTop 2
WINDOW 3 5 56 VBottom 2
SYMATTR InstName L1
SYMATTR Value 10µ
SYMBOL cap 48 448 R0
SYMATTR InstName C1
SYMATTR Value 1µ
SYMBOL cap 64 64 R0
SYMATTR InstName C2
SYMATTR Value 10µ
SYMBOL cap 528 384 R0
SYMATTR InstName C3
SYMATTR Value 4.7µ
SYMBOL res 608 112 R0
SYMATTR InstName R2
SYMATTR Value 800k
SYMBOL res 608 224 R0
SYMATTR InstName R3
SYMATTR Value 200k
SYMBOL cap 720 192 R0
SYMATTR InstName C4
SYMATTR Value 10µ
SYMBOL voltage -416 48 R0
WINDOW 3 27 90 Left 2
WINDOW 123 0 0 Left 0
WINDOW 39 27 110 Left 2
SYMATTR Value 1
SYMATTR SpiceLine Rser=0
SYMATTR InstName V1
SYMBOL current -352 288 R180
WINDOW 0 24 80 Left 2
WINDOW 3 21 -21 Left 2
SYMATTR InstName I1
SYMATTR Value {ISOURCE}
SYMBOL diode -496 224 R0
SYMATTR InstName D1
SYMBOL current -480 384 R0
SYMATTR InstName I2
SYMATTR Value {ISINK}
SYMBOL diode -336 448 R180
WINDOW 0 24 64 Left 2
WINDOW 3 24 0 Left 2
SYMATTR InstName D2
SYMBOL voltage 576 128 R90
WINDOW 0 -32 56 VBottom 2
WINDOW 3 32 56 VTop 2
WINDOW 123 0 0 Left 0
WINDOW 39 0 0 Left 0
SYMATTR InstName V2
SYMATTR Value 0
SYMBOL res 864 160 R0
SYMATTR InstName R4
SYMATTR Value 50
SYMBOL res -128 16 R90
WINDOW 0 5 56 VBottom 2
WINDOW 3 27 56 VTop 2
SYMATTR InstName R5
SYMATTR Value 0.1
SYMBOL res -48 288 R0
SYMATTR InstName R1
SYMATTR Value 40k
TEXT 8 -176 Left 6 ;Joule Thief R3 V0 - MVP
TEXT -448 544 Left 2 !.param ISINK=1m
TEXT -448 520 Left 2 !.param ISOURCE=1
TEXT -552 -32 Left 2 ;CURRENT LIMITED VOLTAGE SOURCE
TEXT -552 616 Left 2 !.tran 5m
RECTANGLE Normal -256 -16 -544 608 2
