Version 4
SHEET 1 912 680
WIRE 240 -288 112 -288
WIRE 464 -288 320 -288
WIRE -832 -240 -1024 -240
WIRE -672 -240 -752 -240
WIRE -432 -240 -672 -240
WIRE -1024 -208 -1024 -240
WIRE -432 -176 -432 -240
WIRE -432 -176 -496 -176
WIRE -368 -176 -432 -176
WIRE -96 -176 -160 -176
WIRE 64 -176 -96 -176
WIRE 112 -176 112 -288
WIRE 112 -176 64 -176
WIRE 144 -176 112 -176
WIRE 464 -176 464 -288
WIRE 464 -176 432 -176
WIRE 64 -160 64 -176
WIRE -496 -144 -496 -176
WIRE -368 -144 -368 -176
WIRE 64 -144 64 -160
WIRE -1024 -80 -1024 -128
WIRE -1024 -80 -1088 -80
WIRE -960 -80 -1024 -80
WIRE 464 -80 432 -80
WIRE 608 -80 544 -80
WIRE 720 -80 608 -80
WIRE 752 -80 720 -80
WIRE 864 -80 752 -80
WIRE -960 -64 -960 -80
WIRE 64 -64 64 -80
WIRE -1088 -48 -1088 -80
WIRE 720 -32 720 -80
WIRE 864 -32 864 -80
WIRE 720 -16 720 -32
WIRE 144 16 -48 16
WIRE 608 16 608 0
WIRE 608 16 432 16
WIRE 640 16 608 16
WIRE 608 32 608 16
WIRE -1088 80 -1088 16
WIRE -960 80 -960 16
WIRE -960 80 -1088 80
WIRE -368 80 -368 -64
WIRE -304 80 -368 80
WIRE -256 80 -304 80
WIRE -160 80 -192 80
WIRE -48 96 -48 16
WIRE -1088 112 -1088 80
WIRE -960 112 -960 80
WIRE 144 112 64 112
WIRE 528 112 432 112
WIRE 560 112 528 112
WIRE 864 112 864 48
WIRE 528 160 528 112
WIRE -496 176 -496 -64
WIRE -304 176 -304 144
WIRE -160 176 -160 144
WIRE 528 176 528 160
WIRE 144 208 48 208
WIRE 464 208 432 208
WIRE -1088 224 -1088 192
WIRE -960 224 -960 176
WIRE -960 224 -1088 224
WIRE 48 224 48 208
WIRE 48 240 48 224
WIRE -368 256 -368 80
WIRE -1088 304 -1088 224
WIRE -496 304 -496 256
WIRE -496 304 -528 304
WIRE -432 304 -496 304
WIRE -48 368 -48 176
WIRE 48 368 48 304
WIRE 288 368 288 256
WIRE 464 368 464 208
WIRE 528 368 528 240
WIRE 608 368 608 112
WIRE 720 368 720 48
WIRE -368 400 -368 352
FLAG 64 -64 0
FLAG 288 368 0
FLAG 48 368 0
FLAG -48 368 0
FLAG 464 368 0
FLAG 528 368 0
FLAG 608 368 0
FLAG 720 368 0
FLAG -96 -176 IN
FLAG 560 112 LDO
FLAG 640 16 FB
FLAG 752 -80 OUT
FLAG -1088 304 0
FLAG 864 112 0
FLAG -528 304 Vbe
FLAG -368 400 0
FLAG -672 -240 BATT
FLAG -304 176 0
FLAG -160 176 0
SYMBOL PowerProducts\\LTC3105 288 16 R0
SYMATTR InstName U1
SYMBOL ind 224 -272 R270
WINDOW 0 32 56 VTop 2
WINDOW 3 5 56 VBottom 2
SYMATTR InstName L1
SYMATTR Value 10µ
SYMBOL cap 32 240 R0
SYMATTR InstName C1
SYMATTR Value 1µ
SYMBOL cap 48 -144 R0
SYMATTR InstName C2
SYMATTR Value 10µ
SYMBOL cap 512 176 R0
SYMATTR InstName C3
SYMATTR Value 4.7µ
SYMBOL res 592 -96 R0
SYMATTR InstName R1
SYMATTR Value 800k
SYMBOL res 592 16 R0
SYMATTR InstName R2
SYMATTR Value 200k
SYMBOL cap 704 -16 R0
SYMATTR InstName C4
SYMATTR Value 10µ
SYMBOL voltage -1024 -224 R0
WINDOW 3 27 90 Left 2
WINDOW 123 0 0 Left 0
WINDOW 39 27 110 Left 2
SYMATTR Value 1
SYMATTR SpiceLine Rser=0
SYMATTR InstName V1
SYMBOL current -960 16 R180
WINDOW 0 24 80 Left 2
WINDOW 3 21 -21 Left 2
SYMATTR InstName I1
SYMATTR Value {ISOURCE}
SYMBOL diode -1104 -48 R0
SYMATTR InstName D1
SYMBOL current -1088 112 R0
SYMATTR InstName I2
SYMATTR Value {ISINK}
SYMBOL diode -944 176 R180
WINDOW 0 24 64 Left 2
WINDOW 3 24 0 Left 2
SYMATTR InstName D2
SYMBOL voltage 560 -80 R90
WINDOW 0 -32 56 VBottom 2
WINDOW 3 32 56 VTop 2
WINDOW 123 0 0 Left 0
WINDOW 39 0 0 Left 0
SYMATTR InstName V2
SYMATTR Value 0
SYMBOL res 848 -48 R0
SYMATTR InstName R3
SYMATTR Value 100
SYMBOL res -736 -256 R90
WINDOW 0 5 56 VBottom 2
WINDOW 3 27 56 VTop 2
SYMATTR InstName R4
SYMATTR Value 0.1
SYMBOL res -64 80 R0
SYMATTR InstName R5
SYMATTR Value 40k
SYMBOL res -512 160 R0
SYMATTR InstName R6
SYMATTR Value 1k
SYMBOL npn -432 256 R0
SYMATTR InstName Q1
SYMATTR Value 2N2222
SYMBOL ind2 -512 -160 R0
WINDOW 3 34 67 Left 2
SYMATTR Value {Lxf}
SYMATTR InstName Lp
SYMATTR SpiceLine Rser=0.176
SYMBOL ind2 -352 -48 R180
WINDOW 0 36 80 Left 2
WINDOW 3 32 14 Left 2
SYMATTR InstName Ls
SYMATTR Value {Lxf}
SYMATTR SpiceLine Rser=0.176
SYMBOL EXTRA\\DIODES.COM\\ZENER\\1N4728A -288 144 R180
WINDOW 0 24 72 Left 0
WINDOW 3 24 0 Left 0
SYMATTR InstName U2
SYMBOL schottky -256 96 R270
WINDOW 0 32 32 VTop 2
WINDOW 3 0 32 VBottom 2
SYMATTR InstName D3
SYMATTR Value 1N5817
SYMBOL cap -176 80 R0
SYMATTR InstName C5
SYMATTR Value 100µ
TEXT -8 -384 Left 6 ;Joule Thief R3 V2 - MVP
TEXT -1056 272 Left 2 !.param ISINK=1m
TEXT -1056 248 Left 2 !.param ISOURCE=1
TEXT -1160 -304 Left 2 ;CURRENT LIMITED VOLTAGE SOURCE
TEXT -1160 344 Left 2 !.tran 250m startup
TEXT -416 -192 Left 2 !K1 Lp Ls 0.98
TEXT -600 -192 Left 2 !.param Lxf = 100u
RECTANGLE Normal -864 -288 -1152 336 2
