Version 4
SHEET 1 2548 680
WIRE 416 -384 416 -432
WIRE 608 -368 608 -432
WIRE 608 -368 544 -368
WIRE 672 -368 608 -368
WIRE 544 -336 544 -368
WIRE 672 -336 672 -368
WIRE 416 -272 416 -304
WIRE 672 -176 672 -256
WIRE 720 -176 672 -176
WIRE 1088 -112 784 -112
WIRE 1216 -112 1088 -112
WIRE 1264 -112 1216 -112
WIRE 1376 -112 1344 -112
WIRE 1408 -112 1376 -112
WIRE 1520 -112 1472 -112
WIRE 1632 -112 1520 -112
WIRE 1744 -112 1632 -112
WIRE 1792 -112 1744 -112
WIRE 1744 -80 1744 -112
WIRE 784 -64 784 -112
WIRE 1088 -64 1088 -112
WIRE 1216 -64 1216 -112
WIRE 1520 -32 1520 -112
WIRE 1632 -32 1632 -112
WIRE 544 -16 544 -256
WIRE 1376 16 1376 -112
WIRE 1376 16 1280 16
WIRE 672 64 672 -176
WIRE 784 64 784 16
WIRE 1520 80 1520 48
WIRE 1520 80 1280 80
WIRE 1632 80 1632 32
WIRE 1744 80 1744 0
WIRE 544 112 544 64
WIRE 544 112 512 112
WIRE 608 112 544 112
WIRE 1328 144 1280 144
WIRE 1520 144 1520 80
WIRE 1328 176 1328 144
WIRE 672 208 672 160
WIRE 1152 272 1152 224
WIRE 1520 272 1520 224
FLAG 416 -272 0
FLAG 512 112 Vbe
FLAG 720 -176 VOUT
FLAG 1792 -112 VLOAD
FLAG 784 64 0
FLAG 1632 80 0
FLAG 672 208 0
FLAG 1152 272 0
FLAG 1520 272 0
FLAG 1328 176 0
FLAG 1744 80 0
SYMBOL res 528 -32 R0
WINDOW 0 31 40 Left 2
WINDOW 3 31 76 Left 2
SYMATTR InstName R1
SYMATTR Value 500
SYMBOL npn 608 64 R0
SYMATTR InstName Q1
SYMATTR Value 2N2222
SYMBOL LED 2000 -160 R0
SYMATTR InstName D1
SYMATTR Value NSPW500BS
SYMBOL voltage 416 -400 R0
WINDOW 123 0 0 Left 0
WINDOW 39 0 0 Left 0
SYMATTR InstName V3
SYMATTR Value {Vbatt}
SYMBOL ind2 528 -352 R0
WINDOW 3 34 67 Left 2
SYMATTR Value {Lxf}
SYMATTR InstName Lp
SYMBOL ind2 688 -240 R180
WINDOW 0 36 80 Left 2
WINDOW 3 32 14 Left 2
SYMATTR InstName Ls
SYMATTR Value {Lxf}
SYMBOL schottky 432 -96 R270
WINDOW 0 32 32 VTop 2
WINDOW 3 0 32 VBottom 2
SYMATTR InstName D2
SYMATTR Value 1N5818
SYMBOL PowerProducts\\LT1110 1152 80 R0
SYMATTR InstName U1
SYMBOL ind 1248 -96 R270
WINDOW 0 32 56 VTop 2
WINDOW 3 5 56 VBottom 2
SYMATTR InstName L1
SYMATTR Value 47µ
SYMBOL schottky 1520 -208 M90
WINDOW 0 0 32 VBottom 2
WINDOW 3 32 32 VTop 2
SYMATTR InstName D3
SYMATTR Value MBR0520L
SYMBOL cap 1616 -32 R0
SYMATTR InstName C3
SYMATTR Value 470µ
SYMBOL voltage 784 -80 R0
WINDOW 123 0 0 Left 0
WINDOW 39 0 0 Left 0
SYMATTR InstName V1
SYMATTR Value 1
SYMBOL RES 1504 -48 R0
SYMATTR InstName R2
SYMATTR Value 300K
SYMBOL RES 1504 128 R0
SYMATTR InstName R3
SYMATTR Value 13.8K
SYMBOL schottky 1408 -96 R270
WINDOW 0 32 32 VTop 2
WINDOW 3 0 32 VBottom 2
SYMATTR InstName D4
SYMATTR Value MBRS140
SYMBOL res 1728 -96 R0
SYMATTR InstName R4
SYMATTR Value 1k
TEXT 688 -352 Left 2 !K1 Lp Ls 0.98
TEXT 48 216 Left 2 !.param Lxf = 100u
TEXT 40 232 Left 2 !;.step dec param Lxf 1u 1m 3
TEXT 48 456 Left 2 !.meas TRAN AvgPwr AVG (V(VLOAD)*I(D1))
TEXT 48 432 Left 2 !.meas Toroid param Lxf
TEXT 40 528 Left 2 !.MEAS TRAN TPERIOD1 WHEN V(OUT)=0.5 RISE=1
TEXT 40 552 Left 2 !.MEAS TRAN TPERIOD2 WHEN V(VOUT)=0.5 RISE=2
TEXT 40 576 Left 2 !.MEAS TRAN FREQ PARAM 1/(TPERIOD2-TPERIOD1)
TEXT 48 480 Left 2 !.meas TRAN AvgLoss AVG (V(VOUT)*Ie(Q1))
TEXT 40 296 Left 2 !.param Vbatt = 1V
TEXT 40 320 Left 2 !;.step param Vbatt 0.1 1.0 0.1
TEXT 40 344 Left 2 !.meas tran Battery param Vbatt
TEXT 432 -464 Left 2 !.tran 0 250m 0 10u startup
TEXT 48 640 Left 2 !.meas TRAN IBase PARAM I(R1)
TEXT 48 664 Left 2 !.meas tran V_BE param V(Vbe)
