Version 4
SHEET 1 880 680
WIRE 288 -160 272 -160
WIRE -80 -128 -176 -128
WIRE 32 -128 16 -128
WIRE 272 -128 272 -160
WIRE 272 -128 112 -128
WIRE 384 -128 272 -128
WIRE 464 -128 384 -128
WIRE 624 -128 560 -128
WIRE 624 -96 624 -128
WIRE 272 -80 272 -128
WIRE 384 -64 384 -128
WIRE -256 16 -272 16
WIRE -640 32 -672 32
WIRE -544 32 -576 32
WIRE 272 32 272 0
WIRE 624 32 624 -16
WIRE -272 48 -272 16
WIRE -272 48 -432 48
WIRE -128 48 -272 48
WIRE -672 80 -672 32
WIRE -576 80 -576 32
WIRE 384 96 384 16
WIRE 384 96 -336 96
WIRE -432 112 -432 48
WIRE 384 128 384 96
WIRE 480 128 480 -80
WIRE 480 128 384 128
WIRE -336 144 -336 96
WIRE -304 144 -336 144
WIRE -176 144 -224 144
WIRE -128 144 -128 48
WIRE 480 176 480 128
WIRE -672 192 -672 160
WIRE -576 192 -576 160
WIRE -256 192 -272 192
WIRE -272 208 -272 192
WIRE 384 208 384 128
WIRE 448 208 384 208
WIRE -336 224 -336 144
WIRE -304 224 -336 224
WIRE -176 240 -176 144
WIRE -176 240 -240 240
WIRE -128 240 -128 224
WIRE -128 240 -176 240
WIRE -64 240 -64 -80
WIRE -64 240 -128 240
WIRE 384 240 384 208
WIRE -432 256 -432 192
WIRE -304 256 -432 256
WIRE -432 272 -432 256
WIRE -128 288 -128 240
WIRE -272 304 -272 272
WIRE 384 336 384 320
WIRE 480 336 480 240
WIRE 480 336 384 336
WIRE -432 368 -432 352
WIRE -128 368 -128 352
WIRE 480 368 480 336
FLAG 272 32 0
FLAG 480 368 0
FLAG 624 32 0
FLAG -256 16 VB
FLAG -272 304 0
FLAG -128 368 0
FLAG -176 -128 VA
FLAG -432 368 0
FLAG -256 192 VB
FLAG -576 192 0
FLAG -544 32 VA
FLAG -672 192 0
FLAG 288 -160 VB
SYMBOL pmos 16 -80 M270
SYMATTR InstName M1
SYMATTR Value Si9433DY
SYMBOL res 16 -112 R270
WINDOW 0 27 56 VTop 2
WINDOW 3 5 56 VBottom 2
SYMATTR InstName R1
SYMATTR Value 10
SYMBOL voltage 272 -96 M0
WINDOW 3 -89 156 Left 2
WINDOW 123 0 0 Left 0
WINDOW 39 0 0 Left 0
SYMATTR InstName V1
SYMATTR Value PULSE(0 5 0 20m 20m 20m 80m)
SYMBOL EXTRA\\VolReg\\TL431 464 176 R0
SYMATTR InstName U1
SYMBOL res 608 -112 R0
SYMATTR InstName R2
SYMATTR Value 100
SYMBOL pmos 560 -80 M270
SYMATTR InstName M2
SYMATTR Value Si9433DY
SYMBOL res 368 -80 R0
SYMATTR InstName R3
SYMATTR Value 5k
SYMBOL res 368 224 R0
SYMATTR InstName R4
SYMATTR Value 10k
SYMBOL Comparator\\lm393 -272 240 R0
SYMATTR InstName U2
SYMBOL res -448 96 R0
SYMATTR InstName R5
SYMATTR Value 1000
SYMBOL res -448 256 R0
SYMATTR InstName R6
SYMATTR Value 1400
SYMBOL res -144 128 R0
SYMATTR InstName R7
SYMATTR Value 220
SYMBOL res -320 160 R270
WINDOW 0 27 56 VTop 2
WINDOW 3 5 56 VBottom 2
SYMATTR InstName R8
SYMATTR Value 50k
SYMBOL cap -144 288 R0
SYMATTR InstName C1
SYMATTR Value 10n
SYMBOL voltage -576 64 R0
WINDOW 123 0 0 Left 0
WINDOW 39 0 0 Left 0
SYMATTR InstName V2
SYMATTR Value 5
SYMBOL voltage -672 64 R0
WINDOW 123 0 0 Left 0
WINDOW 39 0 0 Left 0
SYMATTR InstName V3
SYMATTR Value 4.3
TEXT -704 392 Left 2 !.tran 100m
