Version 4
SHEET 1 880 680
WIRE -544 -16 -560 -16
WIRE -240 -16 -464 -16
WIRE 96 -16 96 -48
WIRE -560 32 -560 -16
WIRE -48 64 -112 64
WIRE -112 80 -112 64
WIRE 96 96 96 48
WIRE 288 112 128 112
WIRE 368 112 288 112
WIRE 480 112 432 112
WIRE 480 128 480 112
WIRE 288 144 288 112
WIRE -240 160 -240 -16
WIRE -48 160 -240 160
WIRE 64 160 64 144
WIRE 144 160 64 160
WIRE 64 192 64 160
WIRE 144 208 144 160
WIRE 288 256 288 208
WIRE -16 304 -16 176
WIRE 64 304 64 272
WIRE 144 304 144 272
WIRE 480 320 480 288
FLAG -16 304 0
FLAG 64 304 0
FLAG -112 80 0
FLAG 144 304 0
FLAG 96 -48 0
FLAG 288 256 0
FLAG 480 320 0
FLAG -560 32 0
SYMBOL Lm386 0 112 R0
SYMATTR InstName U1
SYMBOL voltage 64 176 R0
WINDOW 123 0 0 Left 0
WINDOW 39 0 0 Left 0
SYMATTR InstName V1
SYMATTR Value 12
SYMBOL cap 128 208 R0
SYMATTR InstName C1
SYMATTR Value 100µ
SYMBOL cap 80 -16 R0
SYMATTR InstName C2
SYMATTR Value 100µ
SYMBOL cap 272 144 R0
SYMATTR InstName C3
SYMATTR Value 100n
SYMBOL cap 432 96 R90
WINDOW 0 0 32 VBottom 2
WINDOW 3 32 32 VTop 2
SYMATTR InstName C4
SYMATTR Value 1000µ
SYMBOL speaker 464 192 R0
WINDOW 0 66 8 Left 2
SYMATTR InstName U3
SYMBOL res 464 112 R0
SYMATTR InstName R1
SYMATTR Value 8
SYMBOL voltage -448 -16 R90
WINDOW 0 -65 57 VBottom 2
WINDOW 3 -106 60 VTop 2
WINDOW 123 -47 54 VBottom 2
WINDOW 39 0 0 Left 0
SYMATTR InstName V2
SYMATTR Value SINE(0 1 1000)
SYMATTR Value2 AC 1
TEXT -1096 120 Left 4 ;LM386 AUDIO AMPLIFIER
TEXT -792 352 Left 2 ;.tran 0 10m 0 10u
TEXT -856 272 Left 2 !.param T=0.5
TEXT -856 232 Left 2 !.ac dec 100 1 100k
