Version 4
SHEET 1 1476 680
WIRE 1008 -208 976 -208
WIRE 976 -160 976 -208
WIRE 720 -144 720 -192
WIRE 976 -48 976 -80
WIRE 720 -16 720 -64
WIRE 224 16 224 -16
WIRE 224 16 176 16
WIRE 224 32 224 16
WIRE 320 32 224 32
WIRE 400 32 320 32
WIRE 560 32 496 32
WIRE 176 48 176 16
WIRE 560 64 560 32
WIRE 320 96 320 32
WIRE 1024 112 928 112
WIRE 864 144 864 112
WIRE 864 144 848 144
WIRE 928 144 864 144
WIRE 176 160 176 128
WIRE 928 176 928 144
WIRE 560 192 560 144
WIRE 320 224 320 176
WIRE 416 224 416 80
WIRE 416 224 320 224
WIRE 496 224 416 224
WIRE 608 256 576 256
WIRE 704 256 688 256
WIRE 720 256 704 256
WIRE 864 256 864 144
WIRE 864 256 800 256
WIRE 1024 256 1024 112
WIRE 1088 256 1024 256
WIRE 1328 256 1184 256
WIRE 416 272 416 224
WIRE 576 272 576 256
WIRE 1328 272 1328 256
WIRE 320 288 320 224
WIRE 864 288 864 256
WIRE 496 304 496 224
WIRE 496 304 448 304
WIRE 832 304 688 304
WIRE 928 320 928 256
WIRE 928 320 896 320
WIRE 976 320 928 320
WIRE 1104 320 1104 304
WIRE 1104 320 976 320
WIRE 496 336 496 304
WIRE 688 336 688 304
WIRE 688 336 496 336
WIRE 704 336 704 256
WIRE 832 336 704 336
WIRE 976 368 976 320
WIRE 864 384 864 352
WIRE 1328 384 1328 352
WIRE 1360 384 1328 384
WIRE 320 400 320 368
WIRE 416 400 416 336
WIRE 416 400 320 400
WIRE 688 432 688 336
WIRE 720 432 688 432
WIRE 928 432 928 320
WIRE 928 432 800 432
WIRE 976 448 976 432
WIRE 416 528 416 400
FLAG 416 528 0
FLAG 176 160 0
FLAG 560 192 0
FLAG 224 -16 VB
FLAG 864 112 VB
FLAG 576 272 0
FLAG 864 384 0
FLAG 976 448 0
FLAG 1360 384 VB
FLAG 976 -48 0
FLAG 1008 -208 VA
FLAG 928 112 VA
FLAG 720 -16 0
SYMBOL voltage 176 32 M0
WINDOW 3 20 107 Left 2
WINDOW 123 0 0 Left 0
WINDOW 39 0 0 Left 0
SYMATTR InstName V1
SYMATTR Value PULSE(0 5 0 20m 20m 20m 80m)
SYMBOL EXTRA\\VolReg\\TL431 432 272 M0
SYMATTR InstName U1
SYMBOL res 544 48 R0
SYMATTR InstName R5
SYMATTR Value 100
SYMBOL pmos 496 80 M270
SYMATTR InstName M1
SYMATTR Value Si9433DY
SYMBOL res 304 80 R0
SYMATTR InstName R2
SYMATTR Value 5k
SYMBOL res 304 272 R0
SYMATTR InstName R1
SYMATTR Value 10k
SYMBOL Comparator\\lm393 864 320 R0
SYMATTR InstName U2
SYMBOL res 816 240 R90
WINDOW 0 5 56 VBottom 2
WINDOW 3 27 56 VTop 2
SYMATTR InstName R3
SYMATTR Value 1000
SYMBOL res 704 240 R90
WINDOW 0 5 56 VBottom 2
WINDOW 3 27 56 VTop 2
SYMATTR InstName R4
SYMATTR Value 1400
SYMBOL res 912 160 R0
SYMATTR InstName R6
SYMATTR Value 220
SYMBOL res 816 416 R90
WINDOW 0 5 56 VBottom 2
WINDOW 3 27 56 VTop 2
SYMATTR InstName R7
SYMATTR Value 50k
SYMBOL cap 960 368 R0
SYMATTR InstName C1
SYMATTR Value 10n
SYMBOL voltage 976 -176 R0
WINDOW 123 0 0 Left 0
WINDOW 39 0 0 Left 0
SYMATTR InstName V2
SYMATTR Value 5
SYMBOL res 1312 256 R0
SYMATTR InstName R8
SYMATTR Value 10
SYMBOL pmos 1184 304 M270
SYMATTR InstName M2
SYMATTR Value Si9433DY
SYMBOL voltage 720 -160 R0
WINDOW 123 0 0 Left 0
WINDOW 39 0 0 Left 0
SYMATTR InstName V3
SYMATTR Value 4.3
TEXT 32 296 Left 2 !.tran 80m startup
