Version 4
SHEET 1 880 680
WIRE 160 -160 -128 -160
WIRE 160 -96 160 -160
WIRE -128 -80 -128 -160
WIRE 160 32 160 -16
WIRE 160 32 48 32
WIRE 48 64 48 32
WIRE 160 128 160 32
WIRE 48 160 48 144
WIRE 128 160 48 160
WIRE 48 208 48 160
WIRE 48 320 48 288
WIRE 160 320 160 192
WIRE 160 320 48 320
WIRE 160 368 160 320
FLAG 160 368 0
FLAG -128 0 0
SYMBOL EXTRA\\VolReg\\TL431 144 128 R0
SYMATTR InstName U1
SYMBOL res 144 -112 R0
SYMATTR InstName R1
SYMATTR Value 240
SYMBOL voltage -128 -96 R0
WINDOW 123 0 0 Left 0
WINDOW 39 0 0 Left 0
SYMATTR InstName V1
SYMATTR Value PULSE(0 10 0 10m 1n 0 11m)
SYMBOL res 32 48 R0
SYMATTR InstName R2
SYMATTR Value 100
SYMBOL res 32 192 R0
SYMATTR InstName R3
SYMATTR Value 500
TEXT -208 -232 Left 2 !.tran 50m startup
